/*--------------------------------*- C++ -*----------------------------------*\
| =========                 |                                                 |
| \\      /  F ield         | OpenFOAM: The Open Source CFD Toolbox           |
|  \\    /   O peration     | Version:  v2106                                 |
|   \\  /    A nd           | Website:  www.openfoam.com                      |
|    \\/     M anipulation  |                                                 |
\*---------------------------------------------------------------------------*/
FoamFile
{
    version     2.0;
    format      ascii;
    class       dictionary;
    object      blockMeshDict;
}
// * * * * * * * * * * * * * * * * * * * * * * * * * * * * * * * * * * * * * //

// variable definition
x0 0; x1 0.5; x2 0.7; x3 2; x4 3;
y0 $x0; y1 $x1; y2 $x2; y3 $x3; y4 $x4;
zMin 0; zMax 3;

nx0 5; nx1 9; nx2 4;
ny0 5; ny1 9; ny2 4;
nr 5;
nz 10;

r0 1.0;
rRatio 0.6;

cylinderZMin #eval{ $zMin-1 };
cylinderZMax #eval{ $zMax+1 };

scale   1;

geometry
{
    cylinder
    {
        type   cylinder;
        point1 ($x0 $y0 $cylinderZMin);
        point2 ($x0 $y0 $cylinderZMax);
        radius $r0;
    }
    cylinder_inside
    {
        type   cylinder;
        point1 ($x0 $y0 $cylinderZMin);
        point2 ($x0 $y0 $cylinderZMax);
        radius #eval{ $r0*$rRatio };
    }
}

vertices
(
    // B0 zMin surface
    ($x0 $y0 $zMin)  // v00
    project ($x1 $y0 $zMin) (cylinder_inside) // v01
    //($x1 $y0 $zMin) // v01
    //project ($x1 $y1 $zMin) (cylinder_inside) // v02
    ($x1 $y1 $zMin) // v02
    project ($x0 $y1 $zMin) (cylinder_inside) // v03
    //($x0 $y1 $zMin) // v03

    // B1 zMin surface
    //($x1 $y0 $zMin)  // v01
    project ($x2 $y0 $zMin) (cylinder) // v04
    project ($x2 $y2 $zMin) (cylinder) // v05
    //project ($x1 $y1 $zMin) (cylinder_inside) // v02

    // B2 zMin surface
    //project ($x0 $y1 $zMin) (cylinder_inside) // v03
    //project ($x1 $y1 $zMin) (cylinder_inside) // v02
    //project ($x2 $y2 $zMin) (cylinder) // v05
    project ($x0 $y2 $zMin) (cylinder) // v06

    // B3 zMin surface
    //project ($x2 $y0 $zMin) (cylinder) // v04
    ($x3 $y0 $zMin)  // v07
    ($x3 $y2 $zMin)  // v08
    //project ($x2 $y2 $zMin) (cylinder) // v05

    // B4 zMin surface
    //($x3 $y0 $zMin)  // v07
    ($x4 $y0 $zMin)  // v09
    ($x4 $y2 $zMin)  // v10
    //($x3 $y2 $zMin)  // v08

    // B5 zMin surface
    //project ($x0 $y2 $zMin) (cylinder) // v06
    //project ($x2 $y2 $zMin) (cylinder) // v05
    ($x2 $y3 $zMin)  // v11
    ($x0 $y3 $zMin)  // v12

    // B6 zMin surface
    //project ($x2 $y2 $zMin) (cylinder) // v05
    //($x3 $y2 $zMin)  // v08
    ($x3 $y3 $zMin)  // v13
    //($x2 $y3 $zMin)  // v11

    // B7 zMin surface
    //($x3 $y2 $zMin)  // v08
    //($x4 $y2 $zMin)  // v10
    ($x4 $y3 $zMin)  // v14
    //($x3 $y3 $zMin)  // v13

    // B8 zMin surface
    //($x0 $y3 $zMin)  // v12
    //($x2 $y3 $zMin)  // v11
    ($x2 $y4 $zMin)  // v15
    ($x0 $y4 $zMin)  // v16

    // B9 zMin surface
    //($x2 $y3 $zMin)  // v11
    //($x3 $y3 $zMin)  // v13
    ($x3 $y4 $zMin)  // v17
    //($x2 $y4 $zMin)  // v15

    // B10 zMin surface
    //($x3 $y3 $zMin)  // v13
    //($x4 $y3 $zMin)  // v14
    ($x4 $y4 $zMin)  // v18
    //($x3 $y4 $zMin)  // v17

    // B0 zMax surface
    ($x0 $y0 $zMax)  // v19
    project ($x1 $y0 $zMax) (cylinder_inside) // v20
    //($x1 $y0 $zMax) // v20
    //project ($x1 $y1 $zMax) (cylinder_inside) // v21
    ($x1 $y1 $zMax) // v21
    project ($x0 $y1 $zMax) (cylinder_inside) // v22
    //($x0 $y1 $zMax) // v22

    // B1 zMax surface
    //($x1 $y0 $zMax)  // v01
    project ($x2 $y0 $zMax) (cylinder) // v04
    project ($x2 $y2 $zMax) (cylinder) // v05
    //project ($x1 $y1 $zMax) (cylinder_inside) // v02

    // B2 zMax surface
    //project ($x0 $y1 $zMax) (cylinder_inside) // v03
    //project ($x1 $y1 $zMax) (cylinder_inside) // v02
    //project ($x2 $y2 $zMax) (cylinder) // v05
    project ($x0 $y2 $zMax) (cylinder) // v06

    // B3 zMax surface
    //project ($x2 $y0 $zMax) (cylinder) // v04
    ($x3 $y0 $zMax)  // v07
    ($x3 $y2 $zMax)  // v08
    //project ($x2 $y2 $zMax) (cylinder) // v05

    // B4 zMax surface
    //($x3 $y0 $zMax)  // v07
    ($x4 $y0 $zMax)  // v09
    ($x4 $y2 $zMax)  // v10
    //($x3 $y2 $zMax)  // v08

    // B5 zMax surface
    //project ($x0 $y2 $zMax) (cylinder) // v06
    //project ($x2 $y2 $zMax) (cylinder) // v05
    ($x2 $y3 $zMax)  // v11
    ($x0 $y3 $zMax)  // v12

    // B6 zMax surface
    //project ($x2 $y2 $zMax) (cylinder) // v05
    //($x3 $y2 $zMax)  // v08
    ($x3 $y3 $zMax)  // v13
    //($x2 $y3 $zMax)  // v11

    // B7 zMax surface
    //($x3 $y2 $zMax)  // v08
    //($x4 $y2 $zMax)  // v10
    ($x4 $y3 $zMax)  // v14
    //($x3 $y3 $zMax)  // v13

    // B8 zMax surface
    //($x0 $y3 $zMax)  // v12
    //($x2 $y3 $zMax)  // v11
    ($x2 $y4 $zMax)  // v15
    ($x0 $y4 $zMax)  // v16

    // B9 zMax surface
    //($x2 $y3 $zMax)  // v11
    //($x3 $y3 $zMax)  // v13
    ($x3 $y4 $zMax)  // v17
    //($x2 $y4 $zMax)  // v15

    // B10 zMax surface
    //($x3 $y3 $zMax)  // v13
    //($x4 $y3 $zMax)  // v14
    ($x4 $y4 $zMax)  // v18
    //($x3 $y4 $zMax)  // v17
);

blocks
(
    // zMax number = zMin + 19
    hex ( 0  1  2  3 19 20 21 22) ($nx0 $ny0 $nz) grading (1 1 1) // B0
    hex ( 1  4  5  2 20 23 24 21) ($nr  $ny0 $nz) grading (1 1 1) // B1
    hex ( 3  2  5  6 22 21 24 25) ($nx0 $nr  $nz) grading (1 1 1) // B2

    hex ( 4  7  8  5 23 26 27 24) ($nx1 $ny0 $nz) grading (1 1 1) // B3
    hex ( 7  9 10  8 26 28 29 27) ($nx2 $ny0 $nz) grading (1 1 1) // B4

    hex ( 6  5 11 12 25 24 30 31) ($nx0 $ny1 $nz) grading (1 1 1) // B5
    hex ( 5  8 13 11 24 27 32 30) ($nx1 $ny1 $nz) grading (1 1 1) // B6
    hex ( 8 10 14 13 27 29 33 32) ($nx2 $ny1 $nz) grading (1 1 1) // B7

    hex (12 11 15 16 31 30 34 35) ($nx0 $ny2 $nz) grading (1 1 1) // B8
    hex (11 13 17 15 30 32 36 34) ($nx1 $ny2 $nz) grading (1 1 1) // B9
    hex (13 14 18 17 32 33 37 36) ($nx2 $ny2 $nz) grading (1 1 1) // B10
);

edges
(
    project  4  5 (cylinder)
    project  5  6 (cylinder)

    //project  4 23 (cylinder)
    //project  5 24 (cylinder)
    //project  6 25 (cylinder)

    project 23 24 (cylinder)
    project 24 25 (cylinder)
);

faces
(
    // Common face
    project ( 4  5 24 23) cylinder
    project ( 5  6 25 24) cylinder

);

boundary
(
    xMin
    {
        type patch;
        faces
        (
            (0 0)  // block 0 - face 0
            (2 0)  // block 1 - face 0
            (5 0)  // block 3 - face 0
            (8 0)
        );
    }
    xMax
    {
        type patch;
        faces
        (
            ( 4 1)
            ( 7 1)
            (10 1)
        );
    }
    yMin
    {
        type patch;
        faces
        (
            (0 2)
            (1 2)
            (3 2)
            (4 2)
        );
    }
    yMax
    {
        type patch;
        faces
        (
            ( 8 3)
            ( 9 3)
            (10 3)
        );
    }
    zMin
    {
        type patch;
        faces
        (
            ( 0 4)
            ( 1 4)
            ( 2 4)
            ( 3 4)
            ( 4 4)
            ( 5 4)
            ( 6 4)
            ( 7 4)
            ( 8 4)
            ( 9 4)
            (10 4)
        );
    }
    zMax
    {
        type patch;
        faces
        (
            ( 0 5)
            ( 1 5)
            ( 2 5)
            ( 3 5)
            ( 4 5)
            ( 5 5)
            ( 6 5)
            ( 7 5)
            ( 8 5)
            ( 9 5)
            (10 5)
        );
    }
);

// ************************************************************************* //
