/*--------------------------------*- C++ -*----------------------------------*\
| =========                 |                                                 |
| \\      /  F ield         | OpenFOAM: The Open Source CFD Toolbox           |
|  \\    /   O peration     | Version:  2.2.x                                 |
|   \\  /    A nd           | Web:      www.OpenFOAM.org                      |
|    \\/     M anipulation  |                                                 |
\*---------------------------------------------------------------------------*/
FoamFile
{
    version     2.0;
    format      ascii;
    class       polyBoundaryMesh;
    location    "constant/polyMesh";
    object      boundary;
}
// * * * * * * * * * * * * * * * * * * * * * * * * * * * * * * * * * * * * * //

7
(
    xMin
    {
        type            patch;
        nFaces          80;
        startFace       8352;
    }
    xMax
    {
        type            patch;
        nFaces          80;
        startFace       8432;
    }
    yMin
    {
        type            wall;
        nFaces          160;
        startFace       8512;
    }
    yMax
    {
        type            wall;
        nFaces          160;
        startFace       8672;
    }
    zMin
    {
        type            cyclic;
        inGroups        1(cyclic);
        nFaces          784;
        startFace       8832;
        matchTolerance  0.0001;
        transform       unknown;
        neighbourPatch  zMax;
    }
    zMax
    {
        type            cyclic;
        inGroups        1(cyclic);
        nFaces          784;
        startFace       9616;
        matchTolerance  0.0001;
        transform       unknown;
        neighbourPatch  zMin;
    }
    cylinder
    {
        type            wall;
        nFaces          64;
        startFace       10400;
    }
)

// ************************************************************************* //
