/*--------------------------------*- C++ -*----------------------------------*\
| =========                 |                                                 |
| \\      /  F ield         | OpenFOAM: The Open Source CFD Toolbox           |
|  \\    /   O peration     | Version:  1.7.1                                 |
|   \\  /    A nd           | Web:      www.OpenFOAM.com                      |
|    \\/     M anipulation  |                                                 |
\*---------------------------------------------------------------------------*/
FoamFile
{
    version     2.0;
    format      ascii;
    class       polyBoundaryMesh;
    location    "constant/polyMesh";
    object      boundary;
}
// * * * * * * * * * * * * * * * * * * * * * * * * * * * * * * * * * * * * * //

6
(
    slip
    {
        type            wall;
        nFaces          200;
        startFace       9440;
    }
    movingWalls
    {
        type            wall;
        nFaces          0;
        startFace       9640;
    }
    fixedWalls
    {
        type            wall;
        nFaces          40;
        startFace       9640;
    }
    frontAndBack
    {
        type            empty;
        nFaces          9600;
        startFace       9680;
    }
    inlet
    {
        type            patch;
        nFaces          40;
        startFace       19280;
    }
    outlet
    {
        type            patch;
        nFaces          40;
        startFace       19320;
    }
)

// ************************************************************************* //
